FoamFile
{
    version     2.0;
    format      ascii;
    class       dictionary;
    object      snappyHexMeshDict;
}

// Castellation + snap on ONE watertight multi-region solid (ports as regions)
castellatedMesh true;
snap            true;
addLayers       false;

geometry
{
    solid_air_body.stl
    {
        type triSurfaceMesh;
        name solid_air_body;
        regions
        {
            left_nostril  { name left_nostril; }
            right_nostril { name right_nostril; }
            trachea       { name trachea; }
            wall          { name wall; }
        }
    }
}

castellatedMeshControls
{
    // Docker ~8 GB: moderate snap; true fluid keep uses topoSet surfaceToCell
    maxLocalCells 600000;
    maxGlobalCells 900000;
    minRefinementCells 0;
    maxLoadUnbalance 0.10;
    nCellsBetweenLevels 2;

    features
    (
    );

    refinementSurfaces
    {
        solid_air_body
        {
            level (1 2);
            regions
            {
                left_nostril  { level (2 2); patchInfo { type patch; } }
                right_nostril { level (2 2); patchInfo { type patch; } }
                trachea       { level (2 2); patchInfo { type patch; } }
                wall          { level (1 2); patchInfo { type wall; } }
            }
        }
    }

    resolveFeatureAngle 30;

    refinementRegions
    {
    }

    // Seed for snap (fluid keep is enforced later by surfaceToCell + subsetMesh)
    locationInMesh (0.252623 0.188993 1.600920);

    allowFreeStandingZoneFaces false;
}

snapControls
{
    nSmoothPatch 3;
    tolerance 2.0;
    nSolveIter 30;
    nRelaxIter 5;
    nFeatureSnapIter 5;
    implicitFeatureSnap true;
    explicitFeatureSnap false;
    multiRegionFeatureSnap true;
}

addLayersControls
{
    relativeSizes true;
    layers
    {
    }
    expansionRatio 1.2;
    finalLayerThickness 0.3;
    minThickness 0.1;
    nGrow 0;
    featureAngle 60;
    nRelaxIter 3;
    nSmoothSurfaceNormals 1;
    nSmoothNormals 3;
    nSmoothThickness 10;
    maxFaceThicknessRatio 0.5;
    maxThicknessToMedialRatio 0.3;
    minMedianAxisAngle 90;
    nBufferCellsNoExtrude 0;
    nLayerIter 50;
}

meshQualityControls
{
    maxNonOrtho 65;
    maxBoundarySkewness 20;
    maxInternalSkewness 4;
    maxConcave 80;
    minVol 1e-13;
    minTetQuality 1e-15;
    minArea -1;
    minTwist 0.02;
    minDeterminant 0.001;
    minFaceWeight 0.05;
    minVolRatio 0.01;
    minTriangleTwist -1;
    nSmoothScale 4;
    errorReduction 0.75;
}

debug 0;
mergeTolerance 1e-6;
